mass 1 51.996100
pair_style hybrid/overlay soft 1.650 mliap model mliappy LATER descriptor ace coupling_coefficients.yace
Loading python model deferred.
pair_coeff * * soft 100.0
pair_coeff * * mliap   Cr

thermo 10
velocity all create 0.0001 4928459 dist gaussian
Loading python model complete.
min_style  fire
min_modify integrator eulerexplicit tmax 10.0 tmin 0.0 delaystep 5 dtgrow 1.1 dtshrink 0.5 alpha0 0.1 alphashrink 0.99 vdfmax 100000 halfstepback no initialdelay no
minimize 1e-12 1e-12 10000 100000
  Parameters for fire:
    dmax  delaystep dtgrow dtshrink alpha0 alphashrink tmax tmin   integrator   halfstepback   abcfire
     0.1      5      1.1     0.5     0.1      0.99      10   0   eulerexplicit       no          no
Step          Temp          E_pair         E_mol          TotEng         Press
0   0              7.8104234      0              7.8104234      1002808.7
Averages over the last 52 of 103 rows, steps 510 to 1020:
Temp E_pair E_mol TotEng Press
13.1405 -79.2371 0 -79.2235 -817613
Loop time of 9.98057 on 1 procs for 1020 steps with 9 atoms

Minimization stats:
  Stopping criterion = energy tolerance
  Energy initial, next-to-last, final =
  Force two-norm initial, final = 133.41733 3.7852828e-07
  Force max component initial, final = 64.142596 1.5094491e-07
  Final line search alpha, max atom move = 0 0
  Iterations, force evaluations = 1020 1102

write_data ./StructureDump/sample.7.dat
System init for write_data ...
variable etot equal etotal
variable ptot equal press
variable pairp equal epair
variable numat equal atoms
run 0
Step          Temp          E_pair         E_mol          TotEng         Press
1020   6.7521948e-14 -79.238268      0             -79.238268     -808842.47
Loop time of 4.3752e-05 on 1 procs for 0 steps with 9 atoms
