mass 1 51.996100
pair_style hybrid/overlay soft 1.650 mliap model mliappy LATER descriptor ace coupling_coefficients.yace
Loading python model deferred.
pair_coeff * * soft 100.0
pair_coeff * * mliap   Cr

thermo 10
velocity all create 0.0001 4928459 dist gaussian
Loading python model complete.
min_style  fire
min_modify integrator eulerexplicit tmax 10.0 tmin 0.0 delaystep 5 dtgrow 1.1 dtshrink 0.5 alpha0 0.1 alphashrink 0.99 vdfmax 100000 halfstepback no initialdelay no
minimize 1e-12 1e-12 10000 100000
  Parameters for fire:
    dmax  delaystep dtgrow dtshrink alpha0 alphashrink tmax tmin   integrator   halfstepback   abcfire
     0.1      5      1.1     0.5     0.1      0.99      10   0   eulerexplicit       no          no
Step          Temp          E_pair         E_mol          TotEng         Press
0   0              17.209514      0              17.209514      1536312.1
Averages over the last 67 of 134 rows, steps 670 to 1330:
Temp E_pair E_mol TotEng Press
12.8706 -76.045 0 -76.0317 -1.39497e+06
Loop time of 13.5865 on 1 procs for 1330 steps with 9 atoms

Minimization stats:
  Stopping criterion = energy tolerance
  Energy initial, next-to-last, final =
  Force two-norm initial, final = 168.33349 0.78135089
  Force max component initial, final = 88.59934 0.39610211
  Final line search alpha, max atom move = 0 0
  Iterations, force evaluations = 1330 1450

write_data ./StructureDump/sample.9.dat
System init for write_data ...
variable etot equal etotal
variable ptot equal press
variable pairp equal epair
variable numat equal atoms
run 0
Step          Temp          E_pair         E_mol          TotEng         Press
1330   6.3006089e-13 -76.724361      0             -76.724361     -1156720.5
Loop time of 5.0742e-05 on 1 procs for 0 steps with 9 atoms
