mass 1 51.996100
pair_style hybrid/overlay soft 1.650 mliap model mliappy LATER descriptor ace coupling_coefficients.yace
Loading python model deferred.
pair_coeff * * soft 100.0
pair_coeff * * mliap   Cr

thermo 10
velocity all create 0.0001 4928459 dist gaussian
Loading python model complete.
min_style  fire
min_modify integrator eulerexplicit tmax 10.0 tmin 0.0 delaystep 5 dtgrow 1.1 dtshrink 0.5 alpha0 0.1 alphashrink 0.99 vdfmax 100000 halfstepback no initialdelay no
minimize 1e-12 1e-12 10000 100000
  Parameters for fire:
    dmax  delaystep dtgrow dtshrink alpha0 alphashrink tmax tmin   integrator   halfstepback   abcfire
     0.1      5      1.1     0.5     0.1      0.99      10   0   eulerexplicit       no          no
Step          Temp          E_pair         E_mol          TotEng         Press
0   0             -5.8214622      0             -5.8214622      171203.21
Averages over the last 261 of 522 rows, steps 2610 to 5210:
Temp E_pair E_mol TotEng Press
0.16931 -580.143 0 -580.143 -3.08123e+07
Loop time of 45.9964 on 1 procs for 5210 steps with 7 atoms

Minimization stats:
  Stopping criterion = energy tolerance
  Energy initial, next-to-last, final =
  Force two-norm initial, final = 1.1503201 0.19622326
  Force max component initial, final = 0.67808966 0.13527016
  Final line search alpha, max atom move = 0 0
  Iterations, force evaluations = 5210 5637

write_data ./StructureDump/sample.5.dat
System init for write_data ...
variable etot equal etotal
variable ptot equal press
variable pairp equal epair
variable numat equal atoms
run 0
Step          Temp          E_pair         E_mol          TotEng         Press
5210   4.2203837e-09 -580.01871      0             -580.01871     -25413868
Loop time of 7.2289e-05 on 1 procs for 0 steps with 7 atoms
