mass 1 51.996100
pair_style hybrid/overlay soft 1.650 mliap model mliappy LATER descriptor ace coupling_coefficients.yace
Loading python model deferred.
pair_coeff * * soft 100.0
pair_coeff * * mliap   Cr

thermo 10
velocity all create 0.0001 4928459 dist gaussian
Loading python model complete.
min_style  fire
min_modify integrator eulerexplicit tmax 10.0 tmin 0.0 delaystep 5 dtgrow 1.1 dtshrink 0.5 alpha0 0.1 alphashrink 0.99 vdfmax 100000 halfstepback no initialdelay no
minimize 1e-12 1e-12 10000 100000
  Parameters for fire:
    dmax  delaystep dtgrow dtshrink alpha0 alphashrink tmax tmin   integrator   halfstepback   abcfire
     0.1      5      1.1     0.5     0.1      0.99      10   0   eulerexplicit       no          no
Step          Temp          E_pair         E_mol          TotEng         Press
0   0              4.0892803      0              4.0892803      943875
Averages over the last 128 of 255 rows, steps 1270 to 2531:
Temp E_pair E_mol TotEng Press
12.4067 -27.2442 0 -27.233 427890
Loop time of 24.9937 on 1 procs for 2531 steps with 8 atoms

Minimization stats:
  Stopping criterion = energy tolerance
  Energy initial, next-to-last, final =
  Force two-norm initial, final = 124.96746 1.3437762
  Force max component initial, final = 65.786522 0.72842171
  Final line search alpha, max atom move = 0 0
  Iterations, force evaluations = 2531 2748

write_data ./StructureDump/sample.8.dat
System init for write_data ...
variable etot equal etotal
variable ptot equal press
variable pairp equal epair
variable numat equal atoms
run 0
Step          Temp          E_pair         E_mol          TotEng         Press
2531   3.5248021e-13 -27.971312      0             -27.971312      403577.9
Loop time of 3.9373e-05 on 1 procs for 0 steps with 8 atoms
