mass 1 50.941500
mass 2 28.085000
mass 3 51.996100
pair_style hybrid/overlay soft 2.448 mliap model mliappy LATER descriptor ace coupling_coefficients.yace
Loading python model deferred.
pair_coeff * * soft 1000.000000
pair_coeff * * mliap   V Si Cr

thermo 10
velocity all create 0.0001 4928459 dist gaussian
Loading python model complete.
min_style  fire
min_modify integrator eulerexplicit tmax 10.0 tmin 0.0 delaystep 5 dtgrow 1.1 dtshrink 0.5 alpha0 0.1 alphashrink 0.99 vdfmax 100000 halfstepback no initialdelay no
minimize 1e-6 1e-6 1000 10000
  Parameters for fire:
    dmax  delaystep dtgrow dtshrink alpha0 alphashrink tmax tmin   integrator   halfstepback   abcfire
     0.1      5      1.1     0.5     0.1      0.99      10   0   eulerexplicit       no          no
Step          Temp          E_pair         E_mol          TotEng         Press
0   0              22113.513      0              22113.513      2.129712e+08
Averages over the last 51 of 101 rows, steps 500 to 1000:
Temp E_pair E_mol TotEng Press
139.163 1099.87 0 1100.5 7.37459e+07
Loop time of 493.461 on 1 procs for 1000 steps with 36 atoms

Minimization stats:
  Stopping criterion = max iterations
  Energy initial, next-to-last, final =
  Force two-norm initial, final = 7268.3649 15.756637
  Force max component initial, final = 2550.367 4.6144921
  Final line search alpha, max atom move = 0 0
  Iterations, force evaluations = 1000 1082

write_data ./StructureDump/sample.5.dat
System init for write_data ...
variable etot equal etotal
variable ptot equal press
variable pairp equal epair
variable numat equal atoms
run 0
Step          Temp          E_pair         E_mol          TotEng         Press
1000   8.6698351      1087.6371      0              1087.6764      70771981
Loop time of 2.8445e-05 on 1 procs for 0 steps with 36 atoms
