mass 1 51.996100
pair_style hybrid/overlay soft 1.5 mliap model mliappy LATER descriptor ace coupling_coefficients.yace
Loading python model deferred.
pair_coeff * * soft 100.0
pair_coeff * * mliap   Cr

thermo 10
velocity all create 0.0001 4928459 dist gaussian
Loading python model complete.
min_style  fire
min_modify integrator eulerexplicit tmax 10.0 tmin 0.0 delaystep 5 dtgrow 1.1 dtshrink 0.5 alpha0 0.1 alphashrink 0.99 vdfmax 100000 halfstepback no initialdelay no
minimize 1e-12 1e-12 10000 100000
  Parameters for fire:
    dmax  delaystep dtgrow dtshrink alpha0 alphashrink tmax tmin   integrator   halfstepback   abcfire
     0.1      5      1.1     0.5     0.1      0.99      10   0   eulerexplicit       no          no
Step          Temp          E_pair         E_mol          TotEng         Press
0   0             -5.7629905      0             -5.7629905      94633.818
Averages over the last 447 of 893 rows, steps 4460 to 8920:
Temp E_pair E_mol TotEng Press
129.99 -57.3113 0 -57.1937 -1.09842e+06
Loop time of 56.192 on 1 procs for 8920 steps with 8 atoms

Minimization stats:
  Stopping criterion = energy tolerance
  Energy initial, next-to-last, final =
  Force two-norm initial, final = 1.9985767 0.93549751
  Force max component initial, final = 1.0597434 0.67878944
  Final line search alpha, max atom move = 0 0
  Iterations, force evaluations = 8920 9654

write_data ./StructureDump/sample.8.dat
System init for write_data ...
variable etot equal etotal
variable ptot equal press
variable pairp equal epair
variable numat equal atoms
run 0
Step          Temp          E_pair         E_mol          TotEng         Press
8920   4.4452303e-12 -126.18915      0             -126.18915     -1556928.9
Loop time of 2.5121e-05 on 1 procs for 0 steps with 8 atoms
