mass 1 51.996100
pair_style hybrid/overlay soft 1.5 mliap model mliappy LATER descriptor ace coupling_coefficients.yace
Loading python model deferred.
pair_coeff * * soft 100.0
pair_coeff * * mliap   Cr

thermo 10
velocity all create 0.0001 4928459 dist gaussian
Loading python model complete.
min_style  fire
min_modify integrator eulerexplicit tmax 10.0 tmin 0.0 delaystep 5 dtgrow 1.1 dtshrink 0.5 alpha0 0.1 alphashrink 0.99 vdfmax 100000 halfstepback no initialdelay no
minimize 1e-12 1e-12 10000 100000
  Parameters for fire:
    dmax  delaystep dtgrow dtshrink alpha0 alphashrink tmax tmin   integrator   halfstepback   abcfire
     0.1      5      1.1     0.5     0.1      0.99      10   0   eulerexplicit       no          no
Step          Temp          E_pair         E_mol          TotEng         Press
0   0             -5.3284929      0             -5.3284929      316431.94
Averages over the last 122 of 244 rows, steps 1220 to 2422:
Temp E_pair E_mol TotEng Press
9.17667e-05 -135.015 0 -135.015 -1.19705e+06
Loop time of 14.9971 on 1 procs for 2422 steps with 8 atoms

Minimization stats:
  Stopping criterion = energy tolerance
  Energy initial, next-to-last, final =
  Force two-norm initial, final = 57.139246 7.5014763e-06
  Force max component initial, final = 35.282921 4.0769247e-06
  Final line search alpha, max atom move = 0 0
  Iterations, force evaluations = 2422 2616

write_data ./StructureDump/sample.5.dat
System init for write_data ...
variable etot equal etotal
variable ptot equal press
variable pairp equal epair
variable numat equal atoms
run 0
Step          Temp          E_pair         E_mol          TotEng         Press
2422   2.592257e-10  -135.01524      0             -135.01524     -818708.98
Loop time of 3.8045e-05 on 1 procs for 0 steps with 8 atoms
