mass 1 51.996100
pair_style hybrid/overlay soft 1.5 mliap model mliappy LATER descriptor ace coupling_coefficients.yace
Loading python model deferred.
pair_coeff * * soft 100.0
pair_coeff * * mliap   Cr

thermo 10
velocity all create 0.0001 4928459 dist gaussian
Loading python model complete.
min_style  fire
min_modify integrator eulerexplicit tmax 10.0 tmin 0.0 delaystep 5 dtgrow 1.1 dtshrink 0.5 alpha0 0.1 alphashrink 0.99 vdfmax 100000 halfstepback no initialdelay no
minimize 1e-12 1e-12 10000 100000
  Parameters for fire:
    dmax  delaystep dtgrow dtshrink alpha0 alphashrink tmax tmin   integrator   halfstepback   abcfire
     0.1      5      1.1     0.5     0.1      0.99      10   0   eulerexplicit       no          no
Step          Temp          E_pair         E_mol          TotEng         Press
0   0             -6.692585       0             -6.692585       1692.5034
Averages over the last 70 of 139 rows, steps 690 to 1373:
Temp E_pair E_mol TotEng Press
2.35126e-05 -123.337 0 -123.337 -1.57873e+06
Loop time of 8.55565 on 1 procs for 1373 steps with 8 atoms

Minimization stats:
  Stopping criterion = energy tolerance
  Energy initial, next-to-last, final =
  Force two-norm initial, final = 7.3337307 7.3484999e-06
  Force max component initial, final = 3.7728998 3.9414816e-06
  Final line search alpha, max atom move = 0 0
  Iterations, force evaluations = 1373 1482

write_data ./StructureDump/sample.3.dat
System init for write_data ...
variable etot equal etotal
variable ptot equal press
variable pairp equal epair
variable numat equal atoms
run 0
Step          Temp          E_pair         E_mol          TotEng         Press
1373   4.9269998e-11 -123.33697      0             -123.33697     -1423488.2
Loop time of 2.3476e-05 on 1 procs for 0 steps with 8 atoms
