mass 1 51.996100
pair_style hybrid/overlay soft 1.5 mliap model mliappy LATER descriptor ace coupling_coefficients.yace
Loading python model deferred.
pair_coeff * * soft 100.0
pair_coeff * * mliap   Cr

thermo 10
velocity all create 0.0001 4928459 dist gaussian
Loading python model complete.
min_style  fire
min_modify integrator eulerexplicit tmax 10.0 tmin 0.0 delaystep 5 dtgrow 1.1 dtshrink 0.5 alpha0 0.1 alphashrink 0.99 vdfmax 100000 halfstepback no initialdelay no
minimize 1e-12 1e-12 10000 100000
  Parameters for fire:
    dmax  delaystep dtgrow dtshrink alpha0 alphashrink tmax tmin   integrator   halfstepback   abcfire
     0.1      5      1.1     0.5     0.1      0.99      10   0   eulerexplicit       no          no
Step          Temp          E_pair         E_mol          TotEng         Press
0   0             -2.7831143      0             -2.7831143      424266.71
Averages over the last 284 of 568 rows, steps 2840 to 5670:
Temp E_pair E_mol TotEng Press
159.063 -113.158 0 -113.014 -1.23377e+06
Loop time of 35.805 on 1 procs for 5670 steps with 8 atoms

Minimization stats:
  Stopping criterion = energy tolerance
  Energy initial, next-to-last, final =
  Force two-norm initial, final = 64.137163 9.182091e-07
  Force max component initial, final = 42.565375 4.8176542e-07
  Final line search alpha, max atom move = 0 0
  Iterations, force evaluations = 5670 6125

write_data ./StructureDump/sample.4.dat
System init for write_data ...
variable etot equal etotal
variable ptot equal press
variable pairp equal epair
variable numat equal atoms
run 0
Step          Temp          E_pair         E_mol          TotEng         Press
5670   6.0577709e-13 -128.65932      0             -128.65932     -1461571.8
Loop time of 3.7894e-05 on 1 procs for 0 steps with 8 atoms
