mass 1 51.996100
pair_style hybrid/overlay soft 1.5 mliap model mliappy LATER descriptor ace coupling_coefficients.yace
Loading python model deferred.
pair_coeff * * soft 100.0
pair_coeff * * mliap   Cr

thermo 10
velocity all create 0.0001 4928459 dist gaussian
Loading python model complete.
min_style  fire
min_modify integrator eulerexplicit tmax 10.0 tmin 0.0 delaystep 5 dtgrow 1.1 dtshrink 0.5 alpha0 0.1 alphashrink 0.99 vdfmax 100000 halfstepback no initialdelay no
minimize 1e-12 1e-12 10000 100000
  Parameters for fire:
    dmax  delaystep dtgrow dtshrink alpha0 alphashrink tmax tmin   integrator   halfstepback   abcfire
     0.1      5      1.1     0.5     0.1      0.99      10   0   eulerexplicit       no          no
Step          Temp          E_pair         E_mol          TotEng         Press
0   0             -6.6741118      0             -6.6741118      8454.7754
Averages over the last 211 of 422 rows, steps 2110 to 4207:
Temp E_pair E_mol TotEng Press
0.00283363 -113.898 0 -113.898 -1.22894e+06
Loop time of 26.0161 on 1 procs for 4207 steps with 8 atoms

Minimization stats:
  Stopping criterion = energy tolerance
  Energy initial, next-to-last, final =
  Force two-norm initial, final = 5.5714924 0.00011425531
  Force max component initial, final = 2.2258177 5.8550873e-05
  Final line search alpha, max atom move = 0 0
  Iterations, force evaluations = 4207 4546

write_data ./StructureDump/sample.1.dat
System init for write_data ...
variable etot equal etotal
variable ptot equal press
variable pairp equal epair
variable numat equal atoms
run 0
Step          Temp          E_pair         E_mol          TotEng         Press
4207   2.8771389e-08 -113.89779      0             -113.89779     -1229118.5
Loop time of 2.2024e-05 on 1 procs for 0 steps with 8 atoms
