mass 1 51.996100
pair_style hybrid/overlay soft 1.650 mliap model mliappy LATER descriptor ace coupling_coefficients.yace
Loading python model deferred.
pair_coeff * * soft 100.0
pair_coeff * * mliap   Cr

thermo 10
velocity all create 0.0001 4928459 dist gaussian
Loading python model complete.
min_style  fire
min_modify integrator eulerexplicit tmax 10.0 tmin 0.0 delaystep 5 dtgrow 1.1 dtshrink 0.5 alpha0 0.1 alphashrink 0.99 vdfmax 100000 halfstepback no initialdelay no
minimize 1e-12 1e-12 10000 100000
  Parameters for fire:
    dmax  delaystep dtgrow dtshrink alpha0 alphashrink tmax tmin   integrator   halfstepback   abcfire
     0.1      5      1.1     0.5     0.1      0.99      10   0   eulerexplicit       no          no
Step          Temp          E_pair         E_mol          TotEng         Press
0   0             -5.9922528      0             -5.9922528      512922.9
Averages over the last 203 of 406 rows, steps 2030 to 4050:
Temp E_pair E_mol TotEng Press
4.96077e-05 -97.6794 0 -97.6794 -1.13717e+06
Loop time of 38.7634 on 1 procs for 4050 steps with 9 atoms

Minimization stats:
  Stopping criterion = energy tolerance
  Energy initial, next-to-last, final =
  Force two-norm initial, final = 89.557152 7.606684e-07
  Force max component initial, final = 46.093139 3.0554652e-07
  Final line search alpha, max atom move = 0 0
  Iterations, force evaluations = 4050 4377

write_data ./StructureDump/sample.1.dat
System init for write_data ...
variable etot equal etotal
variable ptot equal press
variable pairp equal epair
variable numat equal atoms
run 0
Step          Temp          E_pair         E_mol          TotEng         Press
4050   1.6324509e-13 -97.679441      0             -97.679441     -40435.816
Loop time of 3.417e-05 on 1 procs for 0 steps with 9 atoms
