mass 1 51.996100
pair_style hybrid/overlay soft 1.650 mliap model mliappy LATER descriptor ace coupling_coefficients.yace
Loading python model deferred.
pair_coeff * * soft 100.0
pair_coeff * * mliap   Cr

thermo 10
velocity all create 0.0001 4928459 dist gaussian
Loading python model complete.
min_style  fire
min_modify integrator eulerexplicit tmax 10.0 tmin 0.0 delaystep 5 dtgrow 1.1 dtshrink 0.5 alpha0 0.1 alphashrink 0.99 vdfmax 100000 halfstepback no initialdelay no
minimize 1e-12 1e-12 10000 100000
  Parameters for fire:
    dmax  delaystep dtgrow dtshrink alpha0 alphashrink tmax tmin   integrator   halfstepback   abcfire
     0.1      5      1.1     0.5     0.1      0.99      10   0   eulerexplicit       no          no
Step          Temp          E_pair         E_mol          TotEng         Press
0   0              6.0038716      0              6.0038716      1484892.7
Averages over the last 58 of 115 rows, steps 570 to 1139:
Temp E_pair E_mol TotEng Press
277.802 -100.651 0 -100.472 -3.12928e+06
Loop time of 8.83353 on 1 procs for 1139 steps with 6 atoms

Minimization stats:
  Stopping criterion = energy tolerance
  Energy initial, next-to-last, final =
  Force two-norm initial, final = 114.1571 5.5679818e-07
  Force max component initial, final = 77.733619 2.7457034e-07
  Final line search alpha, max atom move = 0 0
  Iterations, force evaluations = 1139 1229

write_data ./StructureDump/sample.10.dat
System init for write_data ...
variable etot equal etotal
variable ptot equal press
variable pairp equal epair
variable numat equal atoms
run 0
Step          Temp          E_pair         E_mol          TotEng         Press
1139   3.572269e-13  -111.72091      0             -111.72091     -4019685.1
Loop time of 4.2286e-05 on 1 procs for 0 steps with 6 atoms
