mass 1 51.996100
pair_style hybrid/overlay soft 1.650 mliap model mliappy LATER descriptor ace coupling_coefficients.yace
Loading python model deferred.
pair_coeff * * soft 100.0
pair_coeff * * mliap   Cr

thermo 10
velocity all create 0.0001 4928459 dist gaussian
Loading python model complete.
min_style  fire
min_modify integrator eulerexplicit tmax 10.0 tmin 0.0 delaystep 5 dtgrow 1.1 dtshrink 0.5 alpha0 0.1 alphashrink 0.99 vdfmax 100000 halfstepback no initialdelay no
minimize 1e-12 1e-12 10000 100000
  Parameters for fire:
    dmax  delaystep dtgrow dtshrink alpha0 alphashrink tmax tmin   integrator   halfstepback   abcfire
     0.1      5      1.1     0.5     0.1      0.99      10   0   eulerexplicit       no          no
Step          Temp          E_pair         E_mol          TotEng         Press
0   0              2.0430787      0              2.0430787      1230397.8
Averages over the last 96 of 191 rows, steps 950 to 1899:
Temp E_pair E_mol TotEng Press
0.126472 -18.6809 0 -18.6808 260763
Loop time of 18.5875 on 1 procs for 1899 steps with 8 atoms

Minimization stats:
  Stopping criterion = energy tolerance
  Energy initial, next-to-last, final =
  Force two-norm initial, final = 107.93097 0.2864397
  Force max component initial, final = 66.311716 0.15270571
  Final line search alpha, max atom move = 0 0
  Iterations, force evaluations = 1899 2061

write_data ./StructureDump/sample.6.dat
System init for write_data ...
variable etot equal etotal
variable ptot equal press
variable pairp equal epair
variable numat equal atoms
run 0
Step          Temp          E_pair         E_mol          TotEng         Press
1899   3.9023234e-10 -18.686878      0             -18.686878      166679.13
Loop time of 4.2808e-05 on 1 procs for 0 steps with 8 atoms
