mass 1 51.996100
pair_style hybrid/overlay soft 1.5 mliap model mliappy LATER descriptor ace coupling_coefficients.yace
Loading python model deferred.
pair_coeff * * soft 100.0
pair_coeff * * mliap   Cr

thermo 10
velocity all create 0.0001 4928459 dist gaussian
Loading python model complete.
min_style  fire
min_modify integrator eulerexplicit tmax 10.0 tmin 0.0 delaystep 5 dtgrow 1.1 dtshrink 0.5 alpha0 0.1 alphashrink 0.99 vdfmax 100000 halfstepback no initialdelay no
minimize 1e-12 1e-12 10000 100000
  Parameters for fire:
    dmax  delaystep dtgrow dtshrink alpha0 alphashrink tmax tmin   integrator   halfstepback   abcfire
     0.1      5      1.1     0.5     0.1      0.99      10   0   eulerexplicit       no          no
Step          Temp          E_pair         E_mol          TotEng         Press
0   0             -7.0807835      0             -7.0807835      252349.3
Averages over the last 69 of 138 rows, steps 690 to 1370:
Temp E_pair E_mol TotEng Press
2.74682 -142.198 0 -142.196 -4.6768e+06
Loop time of 8.61836 on 1 procs for 1370 steps with 8 atoms

Minimization stats:
  Stopping criterion = energy tolerance
  Energy initial, next-to-last, final =
  Force two-norm initial, final = 33.309345 2.6167474e-06
  Force max component initial, final = 17.498752 1.2412886e-06
  Final line search alpha, max atom move = 0 0
  Iterations, force evaluations = 1370 1480

write_data ./StructureDump/sample.2.dat
System init for write_data ...
variable etot equal etotal
variable ptot equal press
variable pairp equal epair
variable numat equal atoms
run 0
Step          Temp          E_pair         E_mol          TotEng         Press
1370   3.8401634e-12 -142.20563      0             -142.20563     -4589954.8
Loop time of 4.0587e-05 on 1 procs for 0 steps with 8 atoms
