mass 1 51.996100
pair_style hybrid/overlay soft 1.5 mliap model mliappy LATER descriptor ace coupling_coefficients.yace
Loading python model deferred.
pair_coeff * * soft 100.0
pair_coeff * * mliap   Cr

thermo 10
velocity all create 0.0001 4928459 dist gaussian
Loading python model complete.
min_style  fire
min_modify integrator eulerexplicit tmax 10.0 tmin 0.0 delaystep 5 dtgrow 1.1 dtshrink 0.5 alpha0 0.1 alphashrink 0.99 vdfmax 100000 halfstepback no initialdelay no
minimize 1e-12 1e-12 10000 100000
  Parameters for fire:
    dmax  delaystep dtgrow dtshrink alpha0 alphashrink tmax tmin   integrator   halfstepback   abcfire
     0.1      5      1.1     0.5     0.1      0.99      10   0   eulerexplicit       no          no
Step          Temp          E_pair         E_mol          TotEng         Press
0   0             -9.6807333      0             -9.6807333      75031.283
Averages over the last 116 of 231 rows, steps 1150 to 2297:
Temp E_pair E_mol TotEng Press
0.000218423 -125.182 0 -125.182 -1.78998e+06
Loop time of 14.1822 on 1 procs for 2297 steps with 8 atoms

Minimization stats:
  Stopping criterion = energy tolerance
  Energy initial, next-to-last, final =
  Force two-norm initial, final = 39.270622 5.4677169e-06
  Force max component initial, final = 26.64867 2.232039e-06
  Final line search alpha, max atom move = 0 0
  Iterations, force evaluations = 2297 2482

write_data ./StructureDump/sample.10.dat
System init for write_data ...
variable etot equal etotal
variable ptot equal press
variable pairp equal epair
variable numat equal atoms
run 0
Step          Temp          E_pair         E_mol          TotEng         Press
2297   3.5078617e-11 -125.18163      0             -125.18163     -1165593.2
Loop time of 3.9644e-05 on 1 procs for 0 steps with 8 atoms
