mass 1 51.996100
pair_style hybrid/overlay soft 1.5 mliap model mliappy LATER descriptor ace coupling_coefficients.yace
Loading python model deferred.
pair_coeff * * soft 100.0
pair_coeff * * mliap   Cr

thermo 10
velocity all create 0.0001 4928459 dist gaussian
Loading python model complete.
min_style  fire
min_modify integrator eulerexplicit tmax 10.0 tmin 0.0 delaystep 5 dtgrow 1.1 dtshrink 0.5 alpha0 0.1 alphashrink 0.99 vdfmax 100000 halfstepback no initialdelay no
minimize 1e-12 1e-12 10000 100000
  Parameters for fire:
    dmax  delaystep dtgrow dtshrink alpha0 alphashrink tmax tmin   integrator   halfstepback   abcfire
     0.1      5      1.1     0.5     0.1      0.99      10   0   eulerexplicit       no          no
Step          Temp          E_pair         E_mol          TotEng         Press
0   0             -18.389866      0             -18.389866     -422062
Averages over the last 122 of 244 rows, steps 1220 to 2430:
Temp E_pair E_mol TotEng Press
2.41985e-08 -128.146 0 -128.146 -1.28477e+06
Loop time of 14.9369 on 1 procs for 2430 steps with 8 atoms

Minimization stats:
  Stopping criterion = energy tolerance
  Energy initial, next-to-last, final =
  Force two-norm initial, final = 30.480812 4.0294499e-07
  Force max component initial, final = 12.997957 2.0445467e-07
  Final line search alpha, max atom move = 0 0
  Iterations, force evaluations = 2430 2626

write_data ./StructureDump/sample.9.dat
System init for write_data ...
variable etot equal etotal
variable ptot equal press
variable pairp equal epair
variable numat equal atoms
run 0
Step          Temp          E_pair         E_mol          TotEng         Press
2430   2.9828401e-13 -128.14621      0             -128.14621     -903790.9
Loop time of 2.2604e-05 on 1 procs for 0 steps with 8 atoms
