mass 1 51.996100
pair_style hybrid/overlay soft 1.5 mliap model mliappy LATER descriptor ace coupling_coefficients.yace
Loading python model deferred.
pair_coeff * * soft 100.0
pair_coeff * * mliap   Cr

thermo 10
velocity all create 0.0001 4928459 dist gaussian
Loading python model complete.
min_style  fire
min_modify integrator eulerexplicit tmax 10.0 tmin 0.0 delaystep 5 dtgrow 1.1 dtshrink 0.5 alpha0 0.1 alphashrink 0.99 vdfmax 100000 halfstepback no initialdelay no
minimize 1e-12 1e-12 10000 100000
  Parameters for fire:
    dmax  delaystep dtgrow dtshrink alpha0 alphashrink tmax tmin   integrator   halfstepback   abcfire
     0.1      5      1.1     0.5     0.1      0.99      10   0   eulerexplicit       no          no
Step          Temp          E_pair         E_mol          TotEng         Press
0   0             -5.2976595      0             -5.2976595      324566.48
Averages over the last 243 of 485 rows, steps 2420 to 4832:
Temp E_pair E_mol TotEng Press
0.00288431 -112.031 0 -112.031 -1.18156e+06
Loop time of 30.6454 on 1 procs for 4832 steps with 8 atoms

Minimization stats:
  Stopping criterion = energy tolerance
  Energy initial, next-to-last, final =
  Force two-norm initial, final = 47.839683 5.7696526e-05
  Force max component initial, final = 30.592879 2.8536112e-05
  Final line search alpha, max atom move = 0 0
  Iterations, force evaluations = 4832 5222

write_data ./StructureDump/sample.6.dat
System init for write_data ...
variable etot equal etotal
variable ptot equal press
variable pairp equal epair
variable numat equal atoms
run 0
Step          Temp          E_pair         E_mol          TotEng         Press
4832   1.0553707e-08 -112.02476      0             -112.02476     -712111.51
Loop time of 2.1233e-05 on 1 procs for 0 steps with 8 atoms
